CE
GW	1	7	0	0	0	0.025	0	0	4.0591e-4
GE	0
EX	0	1	4	0	1	0
GN	-1
FR	0	1	0	0	2400	0
